            C:\CYPE Ingenieros\Projects\CYPETHERM EPlus\Zlobek_validated.tri_dat\Energyplus\Project_dem.idf 

  
VERSION, 
  8.8; 
  
! ======================= SIMULATION PARAMETERS ======================= 
  
Building, 
  Zlobek validated ventilation 0.85, ! Name 
  0,               ! North Axis 
  Country,         ! Terrain (*) 
  0.04,            ! Loads Convergence Tolerance Value (*) 
  0.4,             ! Temperature Convergence Tolerance Value {deltaC} (*) 
  FullExterior,    ! Solar Distribution (*) 
  25,              ! Maximum Number of Warmup Days (*) 
  6;               ! Minimum Number of Warmup Days (*) 
  
Timestep, 
  4;               ! Time Step in Hour (*) 
  
SurfaceProperty:ConvectionCoefficients:MultipleSurface, 
  AllInteriorSurfaces, ! Surface Types (*) 
  Inside,          ! Convection Coefficient 1 Location (*) 
  Value,           ! Convection Coefficient 1 Type (*) 
  2,               ! Convection Coefficient 1 (*) 
  ,                ! Convection Coefficient 1 Schedule Name (*) 
  ,                ! Convection Coefficient 1 User Curve Name (*) 
  Outside,         ! Convection Coefficient 2 Location (*) 
  Value,           ! Convection Coefficient 2 Type (*) 
  2,               ! Convection Coefficient 2 (*) 
  ,                ! Convection Coefficient 2 Schedule Name (*) 
  ;                ! Convection Coefficient 2 User Curve Name (*) 
  
SurfaceProperty:ConvectionCoefficients:MultipleSurface, 
  AllExteriorSurfaces, ! Surface Types (*) 
  Inside,          ! Convection Coefficient 1 Location (*) 
  Value,           ! Convection Coefficient 1 Type (*) 
  2,               ! Convection Coefficient 1 (*) 
  ,                ! Convection Coefficient 1 Schedule Name (*) 
  ,                ! Convection Coefficient 1 User Curve Name (*) 
  Outside,         ! Convection Coefficient 2 Location (*) 
  Value,           ! Convection Coefficient 2 Type (*) 
  20,              ! Convection Coefficient 2 (*) 
  ,                ! Convection Coefficient 2 Schedule Name (*) 
  ;                ! Convection Coefficient 2 User Curve Name (*) 
  
HeatBalanceAlgorithm, 
  ConductionTransferFunction; ! SolutionAlgo (*) 
  
SimulationControl, 
  No,              ! Do Zone Sizing Calculation (*) 
  No,              ! Do System Sizing Calculation (*) 
  No,              ! Do Plant Sizing Calculation (*) 
  No,              ! Run Simulation for Sizing Periods (*) 
  Yes;             ! Run Simulation for Weather File Run Periods (*) 
  
RunPeriod, 
  ,                ! Name (*) 
  1,               ! Begin Month (*) 
  1,               ! Begin Day Of Month (*) 
  12,              ! End Month (*) 
  31,              ! End Day Of Month (*) 
  Monday,          ! Day of Week for Start Day (*) 
  Yes,             ! Use Weather File Holidays and Special Days (*) 
  Yes,             ! Use Weather File Daylight Saving Period (*) 
  No,              ! Apply Weekend Holiday Rule (*) 
  Yes,             ! Use Weather File Rain Indicators (*) 
  Yes;             ! Use Weather File Snow Indicators (*) 
  
SizingPeriod:WeatherFileConditionType, 
  Summer,          ! Name 
  SummerExtreme,   ! Period Selection (*) 
  Monday,          ! Day of Week for Start Day (*) 
  Yes,             ! Use Weather File Daylight Saving Period (*) 
  Yes;             ! Use Weather File Rain and Snow Indicators (*) 
  
SizingPeriod:WeatherFileConditionType, 
  Winter,          ! Name 
  WinterExtreme,   ! Period Selection (*) 
  Monday,          ! Day of Week for Start Day (*) 
  Yes,             ! Use Weather File Daylight Saving Period (*) 
  Yes;             ! Use Weather File Rain and Snow Indicators (*) 
  
! ============================= LOCATION ============================= 
  
Site:Location, 
  Warsaw,          ! LocationName 
  52.237,          ! Latitude {deg} 
  21.0175,         ! Longitude {deg} 
  0,               ! TimeZone {hr} (*) 
  111;             ! Elevation {m} 
  
Site:GroundTemperature:BuildingSurface, 
  10,              ! January Ground Temperature {C} (*) 
  10,              ! February Ground Temperature {C} (*) 
  10,              ! March Ground Temperature {C} (*) 
  10,              ! April Ground Temperature {C} (*) 
  10,              ! May Ground Temperature {C} (*) 
  10,              ! June Ground Temperature {C} (*) 
  10,              ! July Ground Temperature {C} (*) 
  10,              ! August Ground Temperature {C} (*) 
  10,              ! September Ground Temperature {C} (*) 
  10,              ! October Ground Temperature {C} (*) 
  10,              ! November Ground Temperature {C} (*) 
  10;              ! December Ground Temperature {C} (*) 
  
Site:GroundReflectance, 
  0.2,             ! January Ground Reflectance (*) 
  0.2,             ! February Ground Reflectance (*) 
  0.2,             ! March Ground Reflectance (*) 
  0.2,             ! April Ground Reflectance (*) 
  0.2,             ! May Ground Reflectance (*) 
  0.2,             ! June Ground Reflectance (*) 
  0.2,             ! July Ground Reflectance (*) 
  0.2,             ! August Ground Reflectance (*) 
  0.2,             ! September Ground Reflectance (*) 
  0.2,             ! October Ground Reflectance (*) 
  0.2,             ! November Ground Reflectance (*) 
  0.2;             ! December Ground Reflectance (*) 
  
Site:WaterMainsTemperature, 
  Schedule,        ! Calculation Method 
  Sched7_water_mains_temp, ! Temperature Schedule Name 
  0,               ! Annual Average Outdoor Air Temperature 
  0;               ! Maximum Difference In Monthly Average Outdoor Air Temperatures 
  
GlobalGeometryRules, 
  LowerLeftCorner, ! Starting Vertex Position (*) 
  Counterclockwise, ! Vertex Entry Direction (*) 
  Relative;        ! CoordinateSystem (*) 
  
! =============================== ZONES =============================== 
  
! -------------------- ZONE: Z01_S01_SleepingRoom1 -------------------- 
! [ZONE=Z01_S01_SleepingRoom1] 
! [SURFACES=5] 
  
Zone, 
  Z01_S01_SleepingRoom1, ! Name 
  0,               ! Direction of Relative North {deg} 
  0,               ! X Origin {m} 
  0,               ! Y Origin {m} 
  0,               ! Z Origin {m} 
  1,               ! Type 
  1,               ! Multiplier 
  3.26,            ! Ceiling Height {m} 
  157.09,          ! Volume {m3} 
  48.19;           ! Floor Area {m2} 
  
! ----------------------------- Surfaces ----------------------------- 
  
BuildingSurface:Detailed, 
  Z01_S01_W01,     ! Name 
  Wall,            ! Surface Type 
  C79_ciana_podstawowa_Aerated, ! Construction Name 
  Z01_S01_SleepingRoom1, ! Zone Name 
  Outdoors,        ! Outside Boundary Condition 
  ,                ! Outside Boundary Condition Object 
  SunExposed,      ! Sun Exposure 
  WindExposed,     ! Wind Exposure 
  0.5,             ! View Factor to Ground to Ground 
  4,               ! NVertex [AREA=28.41] 
  16.2217, 8.37873, 0, 
  7.61344, 7.02518, 0, 
  7.61344, 7.02518, 3.26, 
  16.2217, 8.37873, 3.26; 
  
FenestrationSurface:Detailed, 
  Z01_S01_W01_G1,  ! Name 
  Window,          ! Surface Type 
  H05_Window,      ! Construction Name 
  Z01_S01_W01,     ! Building Surface Name 
  ,                ! Outside Boundary Condition Object 
  0.5,             ! View Factor to Ground 
  ,                ! Name of shading control 
  ,                ! WindowFrameAndDivider Name 
  1,               ! Multiplier 
  4,               ! NVertex [AREA=5.29] 
  16.1433, 8.3664, 0.67, 
  13.8218, 8.00137, 0.67, 
  13.8218, 8.00137, 2.92, 
  16.1433, 8.3664, 2.92; 
  
FenestrationSurface:Detailed, 
  Z01_S01_W01_G2,  ! Name 
  Window,          ! Surface Type 
  H05_Window,      ! Construction Name 
  Z01_S01_W01,     ! Building Surface Name 
  ,                ! Outside Boundary Condition Object 
  0.5,             ! View Factor to Ground 
  ,                ! Name of shading control 
  ,                ! WindowFrameAndDivider Name 
  1,               ! Multiplier 
  4,               ! NVertex [AREA=5.29] 
  13.2291, 7.90818, 0.67, 
  10.9076, 7.54315, 0.67, 
  10.9076, 7.54315, 2.92, 
  13.2291, 7.90818, 2.92; 
  
FenestrationSurface:Detailed, 
  Z01_S01_W01_G3,  ! Name 
  Window,          ! Surface Type 
  H05_Window,      ! Construction Name 
  Z01_S01_W01,     ! Building Surface Name 
  ,                ! Outside Boundary Condition Object 
  0.5,             ! View Factor to Ground 
  ,                ! Name of shading control 
  ,                ! WindowFrameAndDivider Name 
  1,               ! Multiplier 
  4,               ! NVertex [AREA=5.29] 
  10.3149, 7.44995, 0.67, 
  7.99341, 7.08493, 0.67, 
  7.99341, 7.08493, 2.92, 
  10.3149, 7.44995, 2.92; 
  
BuildingSurface:Detailed, 
  Z01_S01_W02,     ! Name 
  Wall,            ! Surface Type 
  C79_ciana_podstawowa_Aerated, ! Construction Name 
  Z01_S01_SleepingRoom1, ! Zone Name 
  Outdoors,        ! Outside Boundary Condition 
  ,                ! Outside Boundary Condition Object 
  SunExposed,      ! Sun Exposure 
  WindExposed,     ! Wind Exposure 
  0.5,             ! View Factor to Ground to Ground 
  4,               ! NVertex [AREA=18.00] 
  17.091, 2.92679, 0, 
  16.2217, 8.37873, 0, 
  16.2217, 8.37873, 3.26, 
  17.091, 2.92679, 3.26; 
  
FenestrationSurface:Detailed, 
  Z01_S01_W02_G1,  ! Name 
  Window,          ! Surface Type 
  H06_Window,      ! Construction Name 
  Z01_S01_W02,     ! Building Surface Name 
  ,                ! Outside Boundary Condition Object 
  0.5,             ! View Factor to Ground 
  ,                ! Name of shading control 
  ,                ! WindowFrameAndDivider Name 
  1,               ! Multiplier 
  4,               ! NVertex [AREA=4.97] 
  16.5698, 6.19549, 0.67, 
  16.2217, 8.37873, 0.67, 
  16.2217, 8.37873, 2.92, 
  16.5698, 6.19549, 2.92; 
  
FenestrationSurface:Detailed, 
  Z01_S01_W02_G2,  ! Name 
  Window,          ! Surface Type 
  H05_Window,      ! Construction Name 
  Z01_S01_W02,     ! Building Surface Name 
  ,                ! Outside Boundary Condition Object 
  0.5,             ! View Factor to Ground 
  ,                ! Name of shading control 
  ,                ! WindowFrameAndDivider Name 
  1,               ! Multiplier 
  4,               ! NVertex [AREA=5.29] 
  17.028, 3.32179, 0.67, 
  16.658, 5.64248, 0.67, 
  16.658, 5.64248, 2.92, 
  17.028, 3.32179, 2.92; 
  
BuildingSurface:Detailed, 
  Z01_S01_W03,     ! Name 
  Wall,            ! Surface Type 
  C80_ciana_podstawowa_Interna, ! Construction Name 
  Z01_S01_SleepingRoom1, ! Zone Name 
  Zone,            ! Outside Boundary Condition 
  Z02_S04_Toilet4, ! Outside Boundary Condition Object 
  NoSun,           ! Sun Exposure 
  NoWind,          ! Wind Exposure 
  0,               ! View Factor to Ground to Ground 
  4,               ! NVertex [AREA=4.01] 
  8.48581, 1.55461, 0, 
  9.70035, 1.7483, 0, 
  9.70035, 1.7483, 3.26, 
  8.48581, 1.55461, 3.26; 
  
BuildingSurface:Detailed, 
  Z01_S01_W04,     ! Name 
  Wall,            ! Surface Type 
  C80_ciana_podstawowa_Interna, ! Construction Name 
  Z01_S01_SleepingRoom1, ! Zone Name 
  Zone,            ! Outside Boundary Condition 
  Z03_S08_Hall3,   ! Outside Boundary Condition Object 
  NoSun,           ! Sun Exposure 
  NoWind,          ! Wind Exposure 
  0,               ! View Factor to Ground to Ground 
  4,               ! NVertex [AREA=24.40] 
  9.70035, 1.7483, 0, 
  17.091, 2.92679, 0, 
  17.091, 2.92679, 3.26, 
  9.70035, 1.7483, 3.26; 
  
BuildingSurface:Detailed, 
  Z01_S01_F01,     ! Name 
  Floor,           ! Surface Type 
  C05_Strop_Hollow_Slab_240mm, ! Construction Name 
  Z01_S01_SleepingRoom1, ! Zone Name 
  Zone,            ! Outside Boundary Condition 
  Z04_S01_DHS,     ! Outside Boundary Condition Object 
  NoSun,           ! Sun Exposure 
  NoWind,          ! Wind Exposure 
  0,               ! View Factor to Ground to Ground 
  5,               ! NVertex [AREA=47.75] 
  8.47775, 1.604, 0, 
  7.61325, 7.02501, 0, 
  16.2217, 8.3785, 0, 
  17.0828, 2.97649, 0, 
  15.0747, 2.656, 0; 
  
! -------------------------- Internal Gains -------------------------- 
  
People, 
  Z01_S01_SleepingRoom1_IG1 People, ! Name 
  Z01_S01_SleepingRoom1, ! Zone or ZoneList Name 
  Sched3,          ! Number of People Schedule Name 
  people,          ! Number of People Calculation Method 
  30,              ! Number of People 
  ,                ! People per Zone Floor Area {person/m2} 
  ,                ! Zone area per person {m2/person} 
  0.6,             ! Fraction Radiant 
  autocalculate,   ! Sensible Heat Fraction (*) 
  Z01_S01_SleepingRoom1_IG1 ActivityLevel, ! Activity level Schedule Name 
  0,               ! Carbon Dioxide Generation Rate {m3/s-W} (*) 
  No,              ! Enable ASHRAE 55 Comfort Warnings (*) 
  ,                ! Mean Radiant Temperature Calculation Type (*) 
  ,                ! Surface Name/Angle Factor List Name (*) 
  Work Eff Sch;    ! Work Efficiency Schedule Name 
  
Schedule:Compact, 
  Z01_S01_SleepingRoom1_IG1 ActivityLevel, ! Name 
  Activity,        ! Schedule Type Limits Name 
  Through:12/31,   !  (*) 
  For:AllDays,     !  (*) 
  Until:24:00, 60; 
  
Lights, 
  Z01_S01_SleepingRoom1_IG2 Lights, ! Name 
  Z01_S01_SleepingRoom1, ! Zone or ZoneList Name 
  Sched3,          ! Schedule Name 
  Watts/Area,      ! Design Level calculation method (*) 
  ,                ! Lighting Level {W} 
  10.3756,         ! Watts per Zone Area {W/m2} 
  ,                ! Watts per Person {W/person} 
  0,               ! Return Air Fraction (*) 
  0.656,           ! Fraction Radiant (*) 
  0.18,            ! Fraction Visible (*) 
  0,               ! Fraction Replaceable (*) 
  1;               ! End-Use Subcategory (*) 
  
ZoneInfiltration:FlowCoefficient, 
  Z01_S01_SleepingRoom1_IG3 Infil, ! Name 
  Z01_S01_SleepingRoom1, ! Zone Name 
  Sched1_flow_rate_fraction, ! Schedule Name 
  0.0163097,       ! Flow Coefficient 
  0.078,           ! Stack Coefficient 
  0.67,            ! Pressure Exponent 
  0.142,           ! Wind Coefficient 
  0.5;             ! Shelter Factor 
  
ZoneVentilation:DesignFlowRate, 
  Z01_S01_SleepingRoom1_IG4 Ventil, ! Name 
  Z01_S01_SleepingRoom1, ! Zone or ZoneList Name 
  Sched1_flow_rate_fraction, ! Schedule Name 
  Flow/Zone,       ! Design Flow Rate Calculation Method 
  0.102,           ! Design Flow Rate {m3/s} 
  ,                ! Flow Rate per Zone Floor Area {m3/s-m2} (*) 
  ,                ! Flow Rate per Person {m3/s-person} (*) 
  0,               ! Air Changes Per Hour 
  Natural,         ! Ventilation Type 
  0,               ! Fan Pressure Rise {Pa} 
  1,               ! Fan Total Efficiency 
  1,               ! Constant Term Coefficient (*) 
  0,               ! Temperature Term Coefficient (*) 
  0,               ! Velocity Term Coefficient (*) 
  0,               ! Velocity Squared Term Coefficient (*) 
  -50,             ! Minimum Indoor Temperature {C} (*) 
  ,                ! Minimum Indoor Temperature Schedule Name (*) 
  100,             ! Maximum Indoor Temperature {C} (*) 
  ,                ! Maximum Indoor Temperature Schedule Name (*) 
  -50,             ! Delta Temperature {deltaC} (*) 
  ,                ! Delta Temperature Schedule Name (*) 
  -50,             ! Minimum Outdoor Temperature {C} (*) 
  ,                ! Minimum Outdoor Temperature Schedule Name (*) 
  100,             ! Maximum Outdoor Temperature {C} (*) 
  ,                ! Maximum Outdoor Temperature Schedule Name (*) 
  40;              ! Maximum Wind Speed {m/s} (*) 
  
ZoneAirBalance:OutdoorAir, 
  Z01_S01_SleepingRoom1 Balance, ! Name 
  Z01_S01_SleepingRoom1, ! Zone Name 
  Quadrature,      ! Air Balance Method (*) 
  0,               ! Induced Outdoor Air Due to Unbalanced Duct Leakage (*) 
  Sched1_flow_rate_fraction; ! Induced Outdoor Air Schedule Name 
  
InternalMass, 
  Z01_S01_SleepingRoom1 Furniture, ! Name 
  FURNIT_InternalMass, ! Construction name 
  Z01_S01_SleepingRoom1, ! Zone 
  24.0951;         ! Surface Area {m2} 
  
! -------------------------------- DHW -------------------------------- 
  
WaterUse:Equipment, 
  Z01_S01_SleepingRoom1 DHW, ! Name 
  General,         ! End-Use Subcategory 
  0,               ! Peak Flow Rate 
  Sched1_flow_rate_fraction, ! Flow Rate Fraction Schedule Name 
  ,                ! Target Temperature Schedule Name (*) 
  Sched2_hot_water_supply_temperature; ! Hot Water Supply Temperature Schedule Name 
  
! ---------------------------- Thermostat ---------------------------- 
  
HVACTemplate:Thermostat, 
  Thermostat_Z01_S01_SleepingRoom1, ! Name 
  Sched0_WeekTempProfile, ! Thermostat Heating Setpoint Schedule 
  ,                ! Thermostat Constant Heating Setpoint {C} 
  ,                ! Thermostat Cooling Setpoint Schedule 
  100;             ! Thermostat Constant Cooling Setpoint {C} 
  
! ---------------------------- Ideal Loads ---------------------------- 
  
HVACTemplate:Zone:IdealLoadsAirSystem, 
  Z01_S01_SleepingRoom1, ! Zone Name 
  Thermostat_Z01_S01_SleepingRoom1, ! Template Thermostat Name 
  ,                ! System Availability Schedule Name (*) 
  50,              ! Maximum Heating Supply Air Temperature {C} (*) 
  13,              ! Minimum Cooling Supply Air Temperature {C} (*) 
  0.0156,          ! Maximum Heating Supply Air Humidity Ratio {kgWater/kgDryAir} (*) 
  0.0077,          ! Minimum Cooling Supply Air Humidity Ratio {kgWater/kgDryAir} (*) 
  NoLimit,         ! Heating Limit (*) 
  ,                ! Maximum Heating Air Flow Rate {m3/s} (*) 
  ,                ! Maximum Sensible Heating Capacity {W} (*) 
  NoLimit,         ! Cooling Limit (*) 
  ,                ! Maximum Cooling Air Flow Rate {m3/s} (*) 
  ,                ! Maximum Total Cooling Capacity {W} (*) 
  ,                ! Heating Availability Schedule Name (*) 
  ,                ! Cooling Availability Schedule Name (*) 
  ConstantSensibleHeatRatio, ! Dehumidification Control Type (*) 
  0.7,             ! Cooling Sensible Heat Ratio {dimensionless} (*) 
  60,              ! Dehumidification Setpoint {percent} (*) 
  None,            ! Humidification Control Type (*) 
  30,              ! Humidification Setpoint {percent} (*) 
  None,            ! Outdoor Air Method 
  ,                ! Outdoor Air Flow Rate per Person 
  ,                ! Outdoor Air Flow Rate per Zone Floor Area 
  ,                ! Outdoor Air Flow Rate per Zone 
  ,                ! Design Specification Outdoor Air Object Name 
  None,            ! Demand Controlled Ventilation Type 
  ,                ! Outdoor Air Economizer Type 
  None,            ! Heat Recovery Type 
  0.5,             ! Sensible Heat Recovery Effectiveness {dimensionless} 
  0.5;             ! Latent Heat Recovery Effectiveness {dimensionless} 
  
! -------------------- ZONE: Z01_S02_SleepingRoom2 -------------------- 
! [ZONE=Z01_S02_SleepingRoom2] 
! [SURFACES=7] 
  
Zone, 
  Z01_S02_SleepingRoom2, ! Name 
  0,               ! Direction of Relative North {deg} 
  0,               ! X Origin {m} 
  0,               ! Y Origin {m} 
  0,               ! Z Origin {m} 
  1,               ! Type 
  1,               ! Multiplier 
  3.26,            ! Ceiling Height {m} 
  157.592,         ! Volume {m3} 
  48.342;          ! Floor Area {m2} 
  
! ----------------------------- Surfaces ----------------------------- 
  
BuildingSurface:Detailed, 
  Z01_S02_W01,     ! Name 
  Wall,            ! Surface Type 
  C79_ciana_podstawowa_Aerated, ! Construction Name 
  Z01_S02_SleepingRoom2, ! Zone Name 
  Outdoors,        ! Outside Boundary Condition 
  ,                ! Outside Boundary Condition Object 
  SunExposed,      ! Sun Exposure 
  WindExposed,     ! Wind Exposure 
  0.5,             ! View Factor to Ground to Ground 
  4,               ! NVertex [AREA=28.56] 
  -10.396, 4.13354, 0, 
  -19.0466, 2.75405, 0, 
  -19.0466, 2.75405, 3.26, 
  -10.396, 4.13354, 3.26; 
  
FenestrationSurface:Detailed, 
  Z01_S02_W01_G1,  ! Name 
  Window,          ! Surface Type 
  H05_Window,      ! Construction Name 
  Z01_S02_W01,     ! Building Surface Name 
  ,                ! Outside Boundary Condition Object 
  0.5,             ! View Factor to Ground 
  ,                ! Name of shading control 
  ,                ! WindowFrameAndDivider Name 
  1,               ! Multiplier 
  4,               ! NVertex [AREA=5.29] 
  -10.5194, 4.11387, 0.67, 
  -12.84, 3.7438, 0.67, 
  -12.84, 3.7438, 2.92, 
  -10.5194, 4.11387, 2.92; 
  
FenestrationSurface:Detailed, 
  Z01_S02_W01_G2,  ! Name 
  Window,          ! Surface Type 
  H05_Window,      ! Construction Name 
  Z01_S02_W01,     ! Building Surface Name 
  ,                ! Outside Boundary Condition Object 
  0.5,             ! View Factor to Ground 
  ,                ! Name of shading control 
  ,                ! WindowFrameAndDivider Name 
  1,               ! Multiplier 
  4,               ! NVertex [AREA=5.29] 
  -13.4325, 3.64931, 0.67, 
  -15.7532, 3.27923, 0.67, 
  -15.7532, 3.27923, 2.92, 
  -13.4325, 3.64931, 2.92; 
  
FenestrationSurface:Detailed, 
  Z01_S02_W01_G3,  ! Name 
  Window,          ! Surface Type 
  H05_Window,      ! Construction Name 
  Z01_S02_W01,     ! Building Surface Name 
  ,                ! Outside Boundary Condition Object 
  0.5,             ! View Factor to Ground 
  ,                ! Name of shading control 
  ,                ! WindowFrameAndDivider Name 
  1,               ! Multiplier 
  4,               ! NVertex [AREA=5.29] 
  -16.3457, 3.18475, 0.67, 
  -18.6664, 2.81467, 0.67, 
  -18.6664, 2.81467, 2.92, 
  -16.3457, 3.18475, 2.92; 
  
BuildingSurface:Detailed, 
  Z01_S02_W02,     ! Name 
  Wall,            ! Surface Type 
  C80_ciana_podstawowa_Interna, ! Construction Name 
  Z01_S02_SleepingRoom2, ! Zone Name 
  Zone,            ! Outside Boundary Condition 
  Z03_S07_Hall2,   ! Outside Boundary Condition Object 
  NoSun,           ! Sun Exposure 
  NoWind,          ! Wind Exposure 
  0,               ! View Factor to Ground to Ground 
  4,               ! NVertex [AREA=24.91] 
  -18.1774, -2.69701, 0, 
  -10.6327, -1.494, 0, 
  -10.6327, -1.494, 3.26, 
  -18.1774, -2.69701, 3.26; 
  
BuildingSurface:Detailed, 
  Z01_S02_W03,     ! Name 
  Wall,            ! Surface Type 
  C80_ciana_podstawowa_Interna, ! Construction Name 
  Z01_S02_SleepingRoom2, ! Zone Name 
  Zone,            ! Outside Boundary Condition 
  Z02_S02_Toilet2, ! Outside Boundary Condition Object 
  NoSun,           ! Sun Exposure 
  NoWind,          ! Wind Exposure 
  0,               ! View Factor to Ground to Ground 
  4,               ! NVertex [AREA=3.65] 
  -10.6327, -1.494, 0, 
  -9.53027, -1.29526, 0, 
  -9.53027, -1.29526, 3.26, 
  -10.6327, -1.494, 3.26; 
  
BuildingSurface:Detailed, 
  Z01_S02_W04,     ! Name 
  Wall,            ! Surface Type 
  C79_ciana_podstawowa_Aerated, ! Construction Name 
  Z01_S02_SleepingRoom2, ! Zone Name 
  Outdoors,        ! Outside Boundary Condition 
  ,                ! Outside Boundary Condition Object 
  SunExposed,      ! Sun Exposure 
  WindExposed,     ! Wind Exposure 
  0.5,             ! View Factor to Ground to Ground 
  4,               ! NVertex [AREA=17.99] 
  -19.0466, 2.75405, 0, 
  -18.1774, -2.69701, 0, 
  -18.1774, -2.69701, 3.26, 
  -19.0466, 2.75405, 3.26; 
  
FenestrationSurface:Detailed, 
  Z01_S02_W04_G1,  ! Name 
  Window,          ! Surface Type 
  H05_Window,      ! Construction Name 
  Z01_S02_W04,     ! Building Surface Name 
  ,                ! Outside Boundary Condition Object 
  0.5,             ! View Factor to Ground 
  ,                ! Name of shading control 
  ,                ! WindowFrameAndDivider Name 
  1,               ! Multiplier 
  4,               ! NVertex [AREA=5.29] 
  -19.0183, 2.57633, 0.67, 
  -18.6482, 0.255651, 0.67, 
  -18.6482, 0.255651, 2.92, 
  -19.0183, 2.57633, 2.92; 
  
FenestrationSurface:Detailed, 
  Z01_S02_W04_G2,  ! Name 
  Window,          ! Surface Type 
  H05_Window,      ! Construction Name 
  Z01_S02_W04,     ! Building Surface Name 
  ,                ! Outside Boundary Condition Object 
  0.5,             ! View Factor to Ground 
  ,                ! Name of shading control 
  ,                ! WindowFrameAndDivider Name 
  1,               ! Multiplier 
  4,               ! NVertex [AREA=5.29] 
  -18.5553, -0.326988, 0.67, 
  -18.1853, -2.64767, 0.67, 
  -18.1853, -2.64767, 2.92, 
  -18.5553, -0.326988, 2.92; 
  
BuildingSurface:Detailed, 
  Z01_S02_W05,     ! Name 
  Wall,            ! Surface Type 
  C80_ciana_podstawowa_Interna, ! Construction Name 
  Z01_S02_SleepingRoom2, ! Zone Name 
  Zone,            ! Outside Boundary Condition 
  Z01_S03_GroupRoom1, ! Outside Boundary Condition Object 
  NoSun,           ! Sun Exposure 
  NoWind,          ! Wind Exposure 
  0,               ! View Factor to Ground to Ground 
  4,               ! NVertex [AREA=17.92] 
  -9.53027, -1.29526, 0, 
  -10.396, 4.13355, 0, 
  -10.396, 4.13355, 3.26, 
  -9.53027, -1.29526, 3.26; 
  
BuildingSurface:Detailed, 
  Z01_S02_F01,     ! Name 
  Floor,           ! Surface Type 
  C05_Strop_Hollow_Slab_240mm, ! Construction Name 
  Z01_S02_SleepingRoom2, ! Zone Name 
  Zone,            ! Outside Boundary Condition 
  Z07_S01_Storage1, ! Outside Boundary Condition Object 
  NoSun,           ! Sun Exposure 
  NoWind,          ! Wind Exposure 
  0,               ! View Factor to Ground to Ground 
  4,               ! NVertex [AREA=13.29] 
  -19.0468, 2.75399, 0, 
  -16.6472, 3.13649, 0, 
  -15.7857, -2.26501, 0, 
  -18.1853, -2.64751, 0; 
  
BuildingSurface:Detailed, 
  Z01_S02_F02,     ! Name 
  Floor,           ! Surface Type 
  C05_Strop_Hollow_Slab_240mm, ! Construction Name 
  Z01_S02_SleepingRoom2, ! Zone Name 
  Zone,            ! Outside Boundary Condition 
  Z07_S02_Storage2, ! Outside Boundary Condition Object 
  NoSun,           ! Sun Exposure 
  NoWind,          ! Wind Exposure 
  0,               ! View Factor to Ground to Ground 
  4,               ! NVertex [AREA=33.97] 
  -10.3958, 4.1335, 0, 
  -9.53475, -1.2685, 0, 
  -15.6672, -2.246, 0, 
  -16.5283, 3.15549, 0; 
  
! -------------------------- Internal Gains -------------------------- 
  
People, 
  Z01_S02_SleepingRoom2_IG1 People, ! Name 
  Z01_S02_SleepingRoom2, ! Zone or ZoneList Name 
  Sched3,          ! Number of People Schedule Name 
  people,          ! Number of People Calculation Method 
  30,              ! Number of People 
  ,                ! People per Zone Floor Area {person/m2} 
  ,                ! Zone area per person {m2/person} 
  0.6,             ! Fraction Radiant 
  autocalculate,   ! Sensible Heat Fraction (*) 
  Z01_S02_SleepingRoom2_IG1 ActivityLevel, ! Activity level Schedule Name 
  0,               ! Carbon Dioxide Generation Rate {m3/s-W} (*) 
  No,              ! Enable ASHRAE 55 Comfort Warnings (*) 
  ,                ! Mean Radiant Temperature Calculation Type (*) 
  ,                ! Surface Name/Angle Factor List Name (*) 
  Work Eff Sch;    ! Work Efficiency Schedule Name 
  
Schedule:Compact, 
  Z01_S02_SleepingRoom2_IG1 ActivityLevel, ! Name 
  Activity,        ! Schedule Type Limits Name 
  Through:12/31,   !  (*) 
  For:AllDays,     !  (*) 
  Until:24:00, 60; 
  
Lights, 
  Z01_S02_SleepingRoom2_IG2 Lights, ! Name 
  Z01_S02_SleepingRoom2, ! Zone or ZoneList Name 
  Sched3,          ! Schedule Name 
  Watts/Area,      ! Design Level calculation method (*) 
  ,                ! Lighting Level {W} 
  10.3429,         ! Watts per Zone Area {W/m2} 
  ,                ! Watts per Person {W/person} 
  0,               ! Return Air Fraction (*) 
  0.656,           ! Fraction Radiant (*) 
  0.18,            ! Fraction Visible (*) 
  0,               ! Fraction Replaceable (*) 
  1;               ! End-Use Subcategory (*) 
  
ZoneInfiltration:FlowCoefficient, 
  Z01_S02_SleepingRoom2_IG3 Infil, ! Name 
  Z01_S02_SleepingRoom2, ! Zone Name 
  Sched1_flow_rate_fraction, ! Schedule Name 
  0.0164207,       ! Flow Coefficient 
  0.078,           ! Stack Coefficient 
  0.67,            ! Pressure Exponent 
  0.142,           ! Wind Coefficient 
  0.5;             ! Shelter Factor 
  
ZoneVentilation:DesignFlowRate, 
  Z01_S02_SleepingRoom2_IG4 Ventil, ! Name 
  Z01_S02_SleepingRoom2, ! Zone or ZoneList Name 
  Sched1_flow_rate_fraction, ! Schedule Name 
  Flow/Zone,       ! Design Flow Rate Calculation Method 
  0.102,           ! Design Flow Rate {m3/s} 
  ,                ! Flow Rate per Zone Floor Area {m3/s-m2} (*) 
  ,                ! Flow Rate per Person {m3/s-person} (*) 
  0,               ! Air Changes Per Hour 
  Natural,         ! Ventilation Type 
  0,               ! Fan Pressure Rise {Pa} 
  1,               ! Fan Total Efficiency 
  1,               ! Constant Term Coefficient (*) 
  0,               ! Temperature Term Coefficient (*) 
  0,               ! Velocity Term Coefficient (*) 
  0,               ! Velocity Squared Term Coefficient (*) 
  -50,             ! Minimum Indoor Temperature {C} (*) 
  ,                ! Minimum Indoor Temperature Schedule Name (*) 
  100,             ! Maximum Indoor Temperature {C} (*) 
  ,                ! Maximum Indoor Temperature Schedule Name (*) 
  -50,             ! Delta Temperature {deltaC} (*) 
  ,                ! Delta Temperature Schedule Name (*) 
  -50,             ! Minimum Outdoor Temperature {C} (*) 
  ,                ! Minimum Outdoor Temperature Schedule Name (*) 
  100,             ! Maximum Outdoor Temperature {C} (*) 
  ,                ! Maximum Outdoor Temperature Schedule Name (*) 
  40;              ! Maximum Wind Speed {m/s} (*) 
  
ZoneAirBalance:OutdoorAir, 
  Z01_S02_SleepingRoom2 Balance, ! Name 
  Z01_S02_SleepingRoom2, ! Zone Name 
  Quadrature,      ! Air Balance Method (*) 
  0,               ! Induced Outdoor Air Due to Unbalanced Duct Leakage (*) 
  Sched1_flow_rate_fraction; ! Induced Outdoor Air Schedule Name 
  
InternalMass, 
  Z01_S02_SleepingRoom2 Furniture, ! Name 
  FURNIT_InternalMass, ! Construction name 
  Z01_S02_SleepingRoom2, ! Zone 
  24.1711;         ! Surface Area {m2} 
  